cps/model/matpower/case118.m
function mpc = case118
mpc.version = '2';
mpc.baseMVA = 100;
mpc.bus =[
	1	3	51	27	0	0	1	1.1085858	-0.061865631	138	1	1.06	0.94;
	2	1	0.0	0.0	0	0	1	1.1268806	0.068460546	138	1	1.06	0.94;
	3	1	0.0	0.0	0	0	1	1.1143409	-0.025315827	138	1	1.06	0.94;
	4	3	39	12	0	0	1	1.1007273	0.014904205	138	1	1.06	0.94;
	5	1	0.0	0.0	0	-40	1	1.1093643	-0.012030754	138	1	1.06	0.94;
	6	3	52	22	0	0	1	1.1126528	-0.033295445	138	1	1.06	0.94;
	7	1	0.0	0.0	0	0	1	1.1218504	0.051467326	138	1	1.06	0.94;
	8	3	28	0	0	0	1	1.1227653	0.062752202	345	1	1.06	0.94;
	9	1	0.0	0.0	0	0	1	1.1398524	-0.045546465	345	1	1.06	0.94;
	10	3	0	0	0	0	1	1.1163404	0.01233671	345	1	1.06	0.94;
	11	1	0.0	0.0	0	0	1	1.1264772	0.093848355	138	1	1.06	0.94;
	12	3	47	10	0	0	1	1.1368209	0.16757149	138	1	1.06	0.94;
	13	1	0.0	0.0	0	0	1	1.1313684	0.041044746	138	1	1.06	0.94;
	14	1	0.0	0.0	0	0	1	1.1387994	0.10172458	138	1	1.06	0.94;
	15	3	90	30	0	0	1	1.13705	0.03152797	138	1	1.06	0.94;
	16	1	0.0	0.0	0	0	1	1.1398524	0.067278646	138	1	1.06	0.94;
	17	1	0.0	0.0	0	0	1	1.1398524	-0.063719682	138	1	1.06	0.94;
	18	3	60	34	0	0	1	1.1388313	0.035898231	138	1	1.06	0.94;
	19	3	45	25	0	0	1	1.1261851	0.031492487	138	1	1.06	0.94;
	20	1	0.0	0.0	0	0	1	1.0960494	-0.077290803	138	1	1.06	0.94;
	21	1	0.0	0.0	0	0	1	1.0719416	-0.13357094	138	1	1.06	0.94;
	22	1	0.0	0.0	0	0	1	1.0421523	-0.17370799	138	1	1.06	0.94;
	23	1	0.0	0.0	0	0	1	0.98829305	-0.18098493	138	1	1.06	0.94;
	24	3	13	0	0	0	1	0.9193241	0.031506427	138	1	1.06	0.94;
	25	3	0	0	0	0	1	1.0816488	0.0066531627	138	1	1.06	0.94;
	26	3	0	0	0	0	1	1.139852	-0.0051294644	345	1	1.06	0.94;
	27	3	71	13	0	0	1	0.87914056	0.18457396	138	1	1.06	0.94;
	28	1	0.0	0.0	0	0	1	0.94414747	0.20965372	138	1	1.06	0.94;
	29	1	0.0	0.0	0	0	1	1.0143988	0.15469876	138	1	1.06	0.94;
	30	1	0.0	0.0	0	0	1	1.120542	-0.029115735	345	1	1.06	0.94;
	31	3	43	27	0	0	1	1.0389709	0.048933987	138	1	1.06	0.94;
	32	3	59	23	0	0	1	0.95790291	0.030885933	138	1	1.06	0.94;
	33	1	0.0	0.0	0	0	1	1.1398524	-0.026928408	138	1	1.06	0.94;
	34	3	59	26	0	14	1	1.1350524	0.031462505	138	1	1.06	0.94;
	35	1	0.0	0.0	0	0	1	1.1318783	0.023185289	138	1	1.06	0.94;
	36	3	31	17	0	0	1	1.1305763	0.031446662	138	1	1.06	0.94;
	37	1	0.0	0.0	0	-25	1	1.1378005	-0.012578996	138	1	1.06	0.94;
	38	1	0.0	0.0	0	0	1	1.089358	-0.022865454	345	1	1.06	0.94;
	39	1	0.0	0.0	0	0	1	1.1371852	0.0018530538	138	1	1.06	0.94;
	40	3	66	23	0	0	1	1.1354456	0.031458288	138	1	1.06	0.94;
	41	1	0.0	0.0	0	0	1	1.1074566	0.011697169	138	1	1.06	0.94;
	42	3	96	23	0	0	1	1.0264347	0.031452004	138	1	1.06	0.94;
	43	1	0.0	0.0	0	0	1	1.1398524	-0.21017842	138	1	1.06	0.94;
	44	1	0.0	0.0	0	10	1	1.1335042	-0.39102429	138	1	1.06	0.94;
	45	1	0.0	0.0	0	10	1	1.1175295	-0.28116965	138	1	1.06	0.94;
	46	3	28	10	0	10	1	1.0635028	0.031452	138	1	1.06	0.94;
	47	1	0.0	0.0	0	0	1	1.0944158	-0.00090492418	138	1	1.06	0.94;
	48	1	0.0	0.0	0	15	1	1.1233698	-0.087609395	138	1	1.06	0.94;
	49	3	87	30	0	0	1	1.1298298	0.031452004	138	1	1.06	0.94;
	50	1	0.0	0.0	0	0	1	1.1335772	-0.011303232	138	1	1.06	0.94;
	51	1	0.0	0.0	0	0	1	1.1382183	-0.061516218	138	1	1.06	0.94;
	52	1	0.0	0.0	0	0	1	1.1398524	-0.080357842	138	1	1.06	0.94;
	53	1	0.0	0.0	0	0	1	1.1394981	-0.04653025	138	1	1.06	0.94;
	54	3	113	32	0	0	1	1.134478	0.031452004	138	1	1.06	0.94;
	55	3	63	22	0	0	1	1.136294	0.031440198	138	1	1.06	0.94;
	56	3	84	18	0	0	1	1.1356305	0.031572346	138	1	1.06	0.94;
	57	1	0.0	0.0	0	0	1	1.1365101	-0.01811466	138	1	1.06	0.94;
	58	1	0.0	0.0	0	0	1	1.1380519	-0.039014298	138	1	1.06	0.94;
	59	3	277	113	0	0	1	1.1212524	0.035329722	138	1	1.06	0.94;
	60	1	0.0	0.0	0	0	1	1.1382811	0.040680446	138	1	1.06	0.94;
	61	3	0	0	0	0	1	1.1398524	0.04970073	138	1	1.06	0.94;
	62	3	77	14	0	0	1	1.1362706	0.034621958	138	1	1.06	0.94;
	63	1	0.0	0.0	0	0	1	1.082006	-0.029765349	345	1	1.06	0.94;
	64	1	0.0	0.0	0	0	1	1.0814632	-0.062312901	345	1	1.06	0.94;
	65	3	0	0	0	0	1	1.0221883	0.031467237	345	1	1.06	0.94;
	66	3	39	18	0	0	1	1.1398524	0.031452004	138	1	1.06	0.94;
	67	1	0.0	0.0	0	0	1	1.1398524	0.0063530337	138	1	1.06	0.94;
	68	1	0.0	0.0	0	0	1	0.90637875	-0.009375453	345	1	1.06	0.94;
	69	3	0	0	0	0	1	0.98774767	0.031452004	138	1	1.06	0.94;
	70	3	66	20	0	0	1	0.92117864	0.03140565	138	1	1.06	0.94;
	71	1	0.0	0.0	0	0	1	0.89131534	0.066918112	138	1	1.06	0.94;
	72	3	12	0	0	0	1	0.86014825	0.031471685	138	1	1.06	0.94;
	73	3	6	0	0	0	1	0.8601476	0.03140638	138	1	1.06	0.94;
	74	3	68	27	0	12	1	0.95315915	0.03142301	138	1	1.06	0.94;
	75	1	0.0	0.0	0	0	1	0.97548294	-0.0043361001	138	1	1.06	0.94;
	76	3	68	36	0	0	1	0.99213427	0.031451181	138	1	1.06	0.94;
	77	3	61	28	0	0	1	1.0876727	0.031476226	138	1	1.06	0.94;
	78	1	0.0	0.0	0	0	1	1.0921701	-0.0081712632	138	1	1.06	0.94;
	79	1	0.0	0.0	0	20	1	1.1006759	-0.046031788	138	1	1.06	0.94;
	80	3	130	26	0	0	1	1.109584	0.031456206	138	1	1.06	0.94;
	81	1	0.0	0.0	0	0	1	0.96326691	-0.17230393	345	1	1.06	0.94;
	82	1	0.0	0.0	0	20	1	1.1305166	-0.23652048	138	1	1.06	0.94;
	83	1	0.0	0.0	0	10	1	1.1374823	-0.22199035	138	1	1.06	0.94;
	84	1	0.0	0.0	0	0	1	1.1398524	-0.070566863	138	1	1.06	0.94;
	85	3	24	15	0	0	1	1.1396748	0.034199573	138	1	1.06	0.94;
	86	1	0.0	0.0	0	0	1	1.1293002	-0.25782385	138	1	1.06	0.94;
	87	3	0	0	0	0	1	1.1059526	-0.81491089	161	1	1.06	0.94;
	88	1	0.0	0.0	0	0	1	1.1356374	0.021967052	138	1	1.06	0.94;
	89	3	0	0	0	0	1	1.1310199	0.031371381	138	1	1.06	0.94;
	90	3	163	42	0	0	1	1.0044092	0.032589629	138	1	1.06	0.94;
	91	3	10	0	0	0	1	1.098426	0.031225991	138	1	1.06	0.94;
	92	3	65	10	0	0	1	1.1328976	0.052642681	138	1	1.06	0.94;
	93	1	0.0	0.0	0	0	1	1.1355298	-0.010434165	138	1	1.06	0.94;
	94	1	0.0	0.0	0	0	1	1.1362044	-0.039956119	138	1	1.06	0.94;
	95	1	0.0	0.0	0	0	1	1.1340288	-0.074782327	138	1	1.06	0.94;
	96	1	0.0	0.0	0	0	1	1.1305124	-0.10596198	138	1	1.06	0.94;
	97	1	0.0	0.0	0	0	1	1.1215265	-0.052269537	138	1	1.06	0.94;
	98	1	0.0	0.0	0	0	1	1.1237036	0.014422693	138	1	1.06	0.94;
	99	3	42	0	0	0	1	1.1398524	0.041594706	138	1	1.06	0.94;
	100	3	37	18	0	0	1	1.1398524	0.067357995	138	1	1.06	0.94;
	101	1	0.0	0.0	0	0	1	1.1398524	0.025061099	138	1	1.06	0.94;
	102	1	0.0	0.0	0	0	1	1.1360753	0.028082037	138	1	1.06	0.94;
	103	3	23	16	0	0	1	1.1047896	0.044284042	138	1	1.06	0.94;
	104	3	38	25	0	0	1	1.0769557	0.067137346	138	1	1.06	0.94;
	105	3	31	26	0	20	1	1.0623363	0.17783833	138	1	1.06	0.94;
	106	1	0.0	0.0	0	0	1	1.0565461	0.061472144	138	1	1.06	0.94;
	107	3	50	12	0	6	1	0.95860082	-0.052955113	138	1	1.06	0.94;
	108	1	0.0	0.0	0	0	1	1.0514669	0.17446788	138	1	1.06	0.94;
	109	1	0.0	0.0	0	0	1	1.0466537	0.1790577	138	1	1.06	0.94;
	110	3	39	30	0	6	1	1.0328792	0.21289964	138	1	1.06	0.94;
	111	3	0	0	0	0	1	1.0745087	-0.093516052	138	1	1.06	0.94;
	112	3	68	13	0	0	1	0.95477664	-0.0072212182	138	1	1.06	0.94;
	113	3	6	0	0	0	1	1.1398498	0.076569855	138	1	1.06	0.94;
	114	1	0.0	0.0	0	0	1	0.92539889	0.083417803	138	1	1.06	0.94;
	115	1	0.0	0.0	0	0	1	0.91979134	0.094069615	138	1	1.06	0.94;
	116	3	184	0	0	0	1	0.8601476	0.031462625	138	1	1.06	0.94;
	117	1	0.0	0.0	0	0	1	1.1395186	0.13523197	138	1	1.06	0.94;
	118	1	0.0	0.0	0	0	1	0.98359478	0.0072813956	138	1	1.06	0.94;
];
mpc.gen = [
	1	36.846485	-8.0068121	15	-5	0.955	100	1	100	0	0	0	0	0	0	0	0	0	0	0	0;
	4	7.0615358	-147.74583	300	-300	0.998	100	1	100	0	0	0	0	0	0	0	0	0	0	0	0;
	6	33.937256	-17.365868	50	-13	0.99	100	1	100	0	0	0	0	0	0	0	0	0	0	0	0;
	8	42.492523	-38.603603	300	-300	1.015	100	1	100	0	0	0	0	0	0	0	0	0	0	0	0;
	10	20.929777	-146.99792	200	-147	1.05	100	1	550	0	0	0	0	0	0	0	0	0	0	0	0;
	12	111.69038	121.91136	120	-35	0.99	100	1	185	0	0	0	0	0	0	0	0	0	0	0	0;
	15	97.684547	36.689953	30	-10	0.97	100	1	100	0	0	0	0	0	0	0	0	0	0	0	0;
	18	69.117767	55.531361	50	-16	0.973	100	1	100	0	0	0	0	0	0	0	0	0	0	0	0;
	19	37.126759	-15.135745	24	-8	0.962	100	1	100	0	0	0	0	0	0	0	0	0	0	0	0;
	24	-4.2453842	-105.15917	300	-300	0.992	100	1	100	0	0	0	0	0	0	0	0	0	0	0	0;
	25	65.579063	-47.491035	140	-47	1.05	100	1	320	0	0	0	0	0	0	0	0	0	0	0	0;
	26	19.785124	281.47076	1000	-1000	1.015	100	1	414	0	0	0	0	0	0	0	0	0	0	0	0;
	27	3.4141834	-299.98965	300	-300	0.968	100	1	100	0	0	0	0	0	0	0	0	0	0	0	0;
	31	66.466034	103.4827	300	-300	0.967	100	1	107	0	0	0	0	0	0	0	0	0	0	0	0;
	32	43.088238	-20.076084	42	-14	0.963	100	1	100	0	0	0	0	0	0	0	0	0	0	0	0;
	34	68.792419	-15.135275	24	-8	0.984	100	1	100	0	0	0	0	0	0	0	0	0	0	0	0;
	36	25.850433	-15.135745	24	-8	0.98	100	1	100	0	0	0	0	0	0	0	0	0	0	0	0;
	40	101.13816	127.71594	300	-300	0.97	100	1	100	0	0	0	0	0	0	0	0	0	0	0	0;
	42	41.35677	-177.45853	300	-300	0.985	100	1	100	0	0	0	0	0	0	0	0	0	0	0	0;
	46	8.797883	-99.999535	100	-100	1.005	100	1	119	0	0	0	0	0	0	0	0	0	0	0	0;
	49	147.04807	146.0981	210	-85	1.025	100	1	304	0	0	0	0	0	0	0	0	0	0	0	0;
	54	106.21053	-3.2687721	300	-300	0.955	100	1	148	0	0	0	0	0	0	0	0	0	0	0	0;
	55	65.453148	30.172157	23	-8	0.952	100	1	100	0	0	0	0	0	0	0	0	0	0	0	0;
	56	88.221298	22.506538	15	-8	0.954	100	1	100	0	0	0	0	0	0	0	0	0	0	0	0;
	59	254.99995	26.698782	180	-60	0.985	100	1	255	0	0	0	0	0	0	0	0	0	0	0	0;
	61	30.430029	223.72148	300	-100	0.995	100	1	260	0	0	0	0	0	0	0	0	0	0	0	0;
	62	70.310799	-11.77876	20	-20	0.998	100	1	100	0	0	0	0	0	0	0	0	0	0	0	0;
	65	70.380486	199.99998	200	-67	1.005	100	1	491	0	0	0	0	0	0	0	0	0	0	0	0;
	66	62.271717	199.99995	200	-67	1.05	100	1	492	0	0	0	0	0	0	0	0	0	0	0	0;
	69	1.6737924e-06	-72.508545	300	-300	1.035	100	1	805.2	0	0	0	0	0	0	0	0	0	0	0	0;
	70	55.04401	-16.709604	32	-10	0.984	100	1	100	0	0	0	0	0	0	0	0	0	0	0	0;
	72	5.0997262	-42.623802	100	-100	0.98	100	1	100	0	0	0	0	0	0	0	0	0	0	0	0;
	73	-2.4904079	-58.625935	100	-100	0.991	100	1	100	0	0	0	0	0	0	0	0	0	0	0	0;
	74	59.631351	-13.856367	9	-6	0.958	100	1	100	0	0	0	0	0	0	0	0	0	0	0	0;
	76	53.837963	-13.263326	23	-8	0.943	100	1	100	0	0	0	0	0	0	0	0	0	0	0	0;
	77	89.266762	74.672211	70	-20	1.006	100	1	100	0	0	0	0	0	0	0	0	0	0	0	0;
	80	171.22629	280.0	280	-165	1.04	100	1	577	0	0	0	0	0	0	0	0	0	0	0	0;
	85	42.686821	23.418608	23	-8	0.985	100	1	100	0	0	0	0	0	0	0	0	0	0	0	0;
	87	-2.8367138	23.974077	1000	-100	1.015	100	1	104	0	0	0	0	0	0	0	0	0	0	0	0;
	89	77.836533	172.3232	300	-210	1.005	100	1	707	0	0	0	0	0	0	0	0	0	0	0	0;
	90	71.864395	-271.82407	300	-300	0.985	100	1	100	0	0	0	0	0	0	0	0	0	0	0	0;
	91	39.257481	83.440125	100	-100	0.98	100	1	100	0	0	0	0	0	0	0	0	0	0	0	0;
	92	75.192253	14.060206	9	-3	0.99	100	1	100	0	0	0	0	0	0	0	0	0	0	0	0;
	99	45.355145	10.258121	100	-100	1.01	100	1	100	0	0	0	0	0	0	0	0	0	0	0	0;
	100	98.468491	154.93129	155	-50	1.017	100	1	352	0	0	0	0	0	0	0	0	0	0	0	0;
	103	24.999454	25.084269	40	-15	1.01	100	1	140	0	0	0	0	0	0	0	0	0	0	0	0;
	104	32.11536	9.4131632	23	-8	0.971	100	1	100	0	0	0	0	0	0	0	0	0	0	0	0;
	105	51.316044	10.709362	23	-8	0.965	100	1	100	0	0	0	0	0	0	0	0	0	0	0	0;
	107	18.336996	-95.648346	200	-200	0.952	100	1	100	0	0	0	0	0	0	0	0	0	0	0	0;
	110	67.466125	12.837457	23	-8	0.973	100	1	100	0	0	0	0	0	0	0	0	0	0	0	0;
	111	14.416568	93.250763	1000	-100	0.98	100	1	136	0	0	0	0	0	0	0	0	0	0	0	0;
	112	21.729959	-53.295914	1000	-100	0.975	100	1	100	0	0	0	0	0	0	0	0	0	0	0	0;
	113	47.678795	91.16008	200	-100	0.993	100	1	100	0	0	0	0	0	0	0	0	0	0	0	0;
	116	104.24747	-1000.0	1000	-1000	1.005	100	1	100	0	0	0	0	0	0	0	0	0	0	0	0;
];
mpc.branch =[
	1	2	0.0303	0.0999	0.0254	9900	0	0	0	0	1	-360	360;
	1	3	0.0129	0.0424	0.01082	9900	0	0	0	0	1	-360	360;
	4	5	0.00176	0.00798	0.0021	9900	0	0	0	0	1	-360	360;
	3	5	0.0241	0.108	0.0284	9900	0	0	0	0	1	-360	360;
	5	6	0.0119	0.054	0.01426	9900	0	0	0	0	1	-360	360;
	6	7	0.00459	0.0208	0.0055	9900	0	0	0	0	1	-360	360;
	8	9	0.00244	0.0305	1.162	9900	0	0	0	0	1	-360	360;
	8	5	0	0.0267	0	9900	0	0	0.985	0	1	-360	360;
	9	10	0.00258	0.0322	1.23	9900	0	0	0	0	1	-360	360;
	4	11	0.0209	0.0688	0.01748	9900	0	0	0	0	1	-360	360;
	5	11	0.0203	0.0682	0.01738	9900	0	0	0	0	1	-360	360;
	11	12	0.00595	0.0196	0.00502	9900	0	0	0	0	1	-360	360;
	2	12	0.0187	0.0616	0.01572	9900	0	0	0	0	1	-360	360;
	3	12	0.0484	0.16	0.0406	9900	0	0	0	0	1	-360	360;
	7	12	0.00862	0.034	0.00874	9900	0	0	0	0	1	-360	360;
	11	13	0.02225	0.0731	0.01876	9900	0	0	0	0	1	-360	360;
	12	14	0.0215	0.0707	0.01816	9900	0	0	0	0	1	-360	360;
	13	15	0.0744	0.2444	0.06268	9900	0	0	0	0	1	-360	360;
	14	15	0.0595	0.195	0.0502	9900	0	0	0	0	1	-360	360;
	12	16	0.0212	0.0834	0.0214	9900	0	0	0	0	1	-360	360;
	15	17	0.0132	0.0437	0.0444	9900	0	0	0	0	1	-360	360;
	16	17	0.0454	0.1801	0.0466	9900	0	0	0	0	1	-360	360;
	17	18	0.0123	0.0505	0.01298	9900	0	0	0	0	1	-360	360;
	18	19	0.01119	0.0493	0.01142	9900	0	0	0	0	1	-360	360;
	19	20	0.0252	0.117	0.0298	9900	0	0	0	0	1	-360	360;
	15	19	0.012	0.0394	0.0101	9900	0	0	0	0	1	-360	360;
	20	21	0.0183	0.0849	0.0216	9900	0	0	0	0	1	-360	360;
	21	22	0.0209	0.097	0.0246	9900	0	0	0	0	1	-360	360;
	22	23	0.0342	0.159	0.0404	9900	0	0	0	0	1	-360	360;
	23	24	0.0135	0.0492	0.0498	9900	0	0	0	0	1	-360	360;
	23	25	0.0156	0.08	0.0864	9900	0	0	0	0	1	-360	360;
	26	25	0	0.0382	0	9900	0	0	0.96	0	1	-360	360;
	25	27	0.0318	0.163	0.1764	9900	0	0	0	0	1	-360	360;
	27	28	0.01913	0.0855	0.0216	9900	0	0	0	0	1	-360	360;
	28	29	0.0237	0.0943	0.0238	9900	0	0	0	0	1	-360	360;
	30	17	0	0.0388	0	9900	0	0	0.96	0	1	-360	360;
	8	30	0.00431	0.0504	0.514	9900	0	0	0	0	1	-360	360;
	26	30	0.00799	0.086	0.908	9900	0	0	0	0	1	-360	360;
	17	31	0.0474	0.1563	0.0399	9900	0	0	0	0	1	-360	360;
	29	31	0.0108	0.0331	0.0083	9900	0	0	0	0	1	-360	360;
	23	32	0.0317	0.1153	0.1173	9900	0	0	0	0	1	-360	360;
	31	32	0.0298	0.0985	0.0251	9900	0	0	0	0	1	-360	360;
	27	32	0.0229	0.0755	0.01926	9900	0	0	0	0	1	-360	360;
	15	33	0.038	0.1244	0.03194	9900	0	0	0	0	1	-360	360;
	19	34	0.0752	0.247	0.0632	9900	0	0	0	0	1	-360	360;
	35	36	0.00224	0.0102	0.00268	9900	0	0	0	0	1	-360	360;
	35	37	0.011	0.0497	0.01318	9900	0	0	0	0	1	-360	360;
	33	37	0.0415	0.142	0.0366	9900	0	0	0	0	1	-360	360;
	34	36	0.00871	0.0268	0.00568	9900	0	0	0	0	1	-360	360;
	34	37	0.00256	0.0094	0.00984	9900	0	0	0	0	1	-360	360;
	38	37	0	0.0375	0	9900	0	0	0.935	0	1	-360	360;
	37	39	0.0321	0.106	0.027	9900	0	0	0	0	1	-360	360;
	37	40	0.0593	0.168	0.042	9900	0	0	0	0	1	-360	360;
	30	38	0.00464	0.054	0.422	9900	0	0	0	0	1	-360	360;
	39	40	0.0184	0.0605	0.01552	9900	0	0	0	0	1	-360	360;
	40	41	0.0145	0.0487	0.01222	9900	0	0	0	0	1	-360	360;
	40	42	0.0555	0.183	0.0466	9900	0	0	0	0	1	-360	360;
	41	42	0.041	0.135	0.0344	9900	0	0	0	0	1	-360	360;
	43	44	0.0608	0.2454	0.06068	9900	0	0	0	0	1	-360	360;
	34	43	0.0413	0.1681	0.04226	9900	0	0	0	0	1	-360	360;
	44	45	0.0224	0.0901	0.0224	9900	0	0	0	0	1	-360	360;
	45	46	0.04	0.1356	0.0332	9900	0	0	0	0	1	-360	360;
	46	47	0.038	0.127	0.0316	9900	0	0	0	0	1	-360	360;
	46	48	0.0601	0.189	0.0472	9900	0	0	0	0	1	-360	360;
	47	49	0.0191	0.0625	0.01604	9900	0	0	0	0	1	-360	360;
	42	49	0.0715	0.323	0.086	9900	0	0	0	0	1	-360	360;
	42	49	0.0715	0.323	0.086	9900	0	0	0	0	1	-360	360;
	45	49	0.0684	0.186	0.0444	9900	0	0	0	0	1	-360	360;
	48	49	0.0179	0.0505	0.01258	9900	0	0	0	0	1	-360	360;
	49	50	0.0267	0.0752	0.01874	9900	0	0	0	0	1	-360	360;
	49	51	0.0486	0.137	0.0342	9900	0	0	0	0	1	-360	360;
	51	52	0.0203	0.0588	0.01396	9900	0	0	0	0	1	-360	360;
	52	53	0.0405	0.1635	0.04058	9900	0	0	0	0	1	-360	360;
	53	54	0.0263	0.122	0.031	9900	0	0	0	0	1	-360	360;
	49	54	0.073	0.289	0.0738	9900	0	0	0	0	1	-360	360;
	49	54	0.0869	0.291	0.073	9900	0	0	0	0	1	-360	360;
	54	55	0.0169	0.0707	0.0202	9900	0	0	0	0	1	-360	360;
	54	56	0.00275	0.00955	0.00732	9900	0	0	0	0	1	-360	360;
	55	56	0.00488	0.0151	0.00374	9900	0	0	0	0	1	-360	360;
	56	57	0.0343	0.0966	0.0242	9900	0	0	0	0	1	-360	360;
	50	57	0.0474	0.134	0.0332	9900	0	0	0	0	1	-360	360;
	56	58	0.0343	0.0966	0.0242	9900	0	0	0	0	1	-360	360;
	51	58	0.0255	0.0719	0.01788	9900	0	0	0	0	1	-360	360;
	54	59	0.0503	0.2293	0.0598	9900	0	0	0	0	1	-360	360;
	56	59	0.0825	0.251	0.0569	9900	0	0	0	0	1	-360	360;
	56	59	0.0803	0.239	0.0536	9900	0	0	0	0	1	-360	360;
	55	59	0.04739	0.2158	0.05646	9900	0	0	0	0	1	-360	360;
	59	60	0.0317	0.145	0.0376	9900	0	0	0	0	1	-360	360;
	59	61	0.0328	0.15	0.0388	9900	0	0	0	0	1	-360	360;
	60	61	0.00264	0.0135	0.01456	9900	0	0	0	0	1	-360	360;
	60	62	0.0123	0.0561	0.01468	9900	0	0	0	0	1	-360	360;
	61	62	0.00824	0.0376	0.0098	9900	0	0	0	0	1	-360	360;
	63	59	0	0.0386	0	9900	0	0	0.96	0	1	-360	360;
	63	64	0.00172	0.02	0.216	9900	0	0	0	0	1	-360	360;
	64	61	0	0.0268	0	9900	0	0	0.985	0	1	-360	360;
	38	65	0.00901	0.0986	1.046	9900	0	0	0	0	1	-360	360;
	64	65	0.00269	0.0302	0.38	9900	0	0	0	0	1	-360	360;
	49	66	0.018	0.0919	0.0248	9900	0	0	0	0	1	-360	360;
	49	66	0.018	0.0919	0.0248	9900	0	0	0	0	1	-360	360;
	62	66	0.0482	0.218	0.0578	9900	0	0	0	0	1	-360	360;
	62	67	0.0258	0.117	0.031	9900	0	0	0	0	1	-360	360;
	65	66	0	0.037	0	9900	0	0	0.935	0	1	-360	360;
	66	67	0.0224	0.1015	0.02682	9900	0	0	0	0	1	-360	360;
	65	68	0.00138	0.016	0.638	9900	0	0	0	0	1	-360	360;
	47	69	0.0844	0.2778	0.07092	9900	0	0	0	0	1	-360	360;
	49	69	0.0985	0.324	0.0828	9900	0	0	0	0	1	-360	360;
	68	69	0	0.037	0	9900	0	0	0.935	0	1	-360	360;
	69	70	0.03	0.127	0.122	9900	0	0	0	0	1	-360	360;
	24	70	0.00221	0.4115	0.10198	9900	0	0	0	0	1	-360	360;
	70	71	0.00882	0.0355	0.00878	9900	0	0	0	0	1	-360	360;
	24	72	0.0488	0.196	0.0488	9900	0	0	0	0	1	-360	360;
	71	72	0.0446	0.18	0.04444	9900	0	0	0	0	1	-360	360;
	71	73	0.00866	0.0454	0.01178	9900	0	0	0	0	1	-360	360;
	70	74	0.0401	0.1323	0.03368	9900	0	0	0	0	1	-360	360;
	70	75	0.0428	0.141	0.036	9900	0	0	0	0	1	-360	360;
	69	75	0.0405	0.122	0.124	9900	0	0	0	0	1	-360	360;
	74	75	0.0123	0.0406	0.01034	9900	0	0	0	0	1	-360	360;
	76	77	0.0444	0.148	0.0368	9900	0	0	0	0	1	-360	360;
	69	77	0.0309	0.101	0.1038	9900	0	0	0	0	1	-360	360;
	75	77	0.0601	0.1999	0.04978	9900	0	0	0	0	1	-360	360;
	77	78	0.00376	0.0124	0.01264	9900	0	0	0	0	1	-360	360;
	78	79	0.00546	0.0244	0.00648	9900	0	0	0	0	1	-360	360;
	77	80	0.017	0.0485	0.0472	9900	0	0	0	0	1	-360	360;
	77	80	0.0294	0.105	0.0228	9900	0	0	0	0	1	-360	360;
	79	80	0.0156	0.0704	0.0187	9900	0	0	0	0	1	-360	360;
	68	81	0.00175	0.0202	0.808	9900	0	0	0	0	1	-360	360;
	81	80	0	0.037	0	9900	0	0	0.935	0	1	-360	360;
	77	82	0.0298	0.0853	0.08174	9900	0	0	0	0	1	-360	360;
	82	83	0.0112	0.03665	0.03796	9900	0	0	0	0	1	-360	360;
	83	84	0.0625	0.132	0.0258	9900	0	0	0	0	1	-360	360;
	83	85	0.043	0.148	0.0348	9900	0	0	0	0	1	-360	360;
	84	85	0.0302	0.0641	0.01234	9900	0	0	0	0	1	-360	360;
	85	86	0.035	0.123	0.0276	9900	0	0	0	0	1	-360	360;
	86	87	0.02828	0.2074	0.0445	9900	0	0	0	0	1	-360	360;
	85	88	0.02	0.102	0.0276	9900	0	0	0	0	1	-360	360;
	85	89	0.0239	0.173	0.047	9900	0	0	0	0	1	-360	360;
	88	89	0.0139	0.0712	0.01934	9900	0	0	0	0	1	-360	360;
	89	90	0.0518	0.188	0.0528	9900	0	0	0	0	1	-360	360;
	89	90	0.0238	0.0997	0.106	9900	0	0	0	0	1	-360	360;
	90	91	0.0254	0.0836	0.0214	9900	0	0	0	0	1	-360	360;
	89	92	0.0099	0.0505	0.0548	9900	0	0	0	0	1	-360	360;
	89	92	0.0393	0.1581	0.0414	9900	0	0	0	0	1	-360	360;
	91	92	0.0387	0.1272	0.03268	9900	0	0	0	0	1	-360	360;
	92	93	0.0258	0.0848	0.0218	9900	0	0	0	0	1	-360	360;
	92	94	0.0481	0.158	0.0406	9900	0	0	0	0	1	-360	360;
	93	94	0.0223	0.0732	0.01876	9900	0	0	0	0	1	-360	360;
	94	95	0.0132	0.0434	0.0111	9900	0	0	0	0	1	-360	360;
	80	96	0.0356	0.182	0.0494	9900	0	0	0	0	1	-360	360;
	82	96	0.0162	0.053	0.0544	9900	0	0	0	0	1	-360	360;
	94	96	0.0269	0.0869	0.023	9900	0	0	0	0	1	-360	360;
	80	97	0.0183	0.0934	0.0254	9900	0	0	0	0	1	-360	360;
	80	98	0.0238	0.108	0.0286	9900	0	0	0	0	1	-360	360;
	80	99	0.0454	0.206	0.0546	9900	0	0	0	0	1	-360	360;
	92	100	0.0648	0.295	0.0472	9900	0	0	0	0	1	-360	360;
	94	100	0.0178	0.058	0.0604	9900	0	0	0	0	1	-360	360;
	95	96	0.0171	0.0547	0.01474	9900	0	0	0	0	1	-360	360;
	96	97	0.0173	0.0885	0.024	9900	0	0	0	0	1	-360	360;
	98	100	0.0397	0.179	0.0476	9900	0	0	0	0	1	-360	360;
	99	100	0.018	0.0813	0.0216	9900	0	0	0	0	1	-360	360;
	100	101	0.0277	0.1262	0.0328	9900	0	0	0	0	1	-360	360;
	92	102	0.0123	0.0559	0.01464	9900	0	0	0	0	1	-360	360;
	101	102	0.0246	0.112	0.0294	9900	0	0	0	0	1	-360	360;
	100	103	0.016	0.0525	0.0536	9900	0	0	0	0	1	-360	360;
	100	104	0.0451	0.204	0.0541	9900	0	0	0	0	1	-360	360;
	103	104	0.0466	0.1584	0.0407	9900	0	0	0	0	1	-360	360;
	103	105	0.0535	0.1625	0.0408	9900	0	0	0	0	1	-360	360;
	100	106	0.0605	0.229	0.062	9900	0	0	0	0	1	-360	360;
	104	105	0.00994	0.0378	0.00986	9900	0	0	0	0	1	-360	360;
	105	106	0.014	0.0547	0.01434	9900	0	0	0	0	1	-360	360;
	105	107	0.053	0.183	0.0472	9900	0	0	0	0	1	-360	360;
	105	108	0.0261	0.0703	0.01844	9900	0	0	0	0	1	-360	360;
	106	107	0.053	0.183	0.0472	9900	0	0	0	0	1	-360	360;
	108	109	0.0105	0.0288	0.0076	9900	0	0	0	0	1	-360	360;
	103	110	0.03906	0.1813	0.0461	9900	0	0	0	0	1	-360	360;
	109	110	0.0278	0.0762	0.0202	9900	0	0	0	0	1	-360	360;
	110	111	0.022	0.0755	0.02	9900	0	0	0	0	1	-360	360;
	110	112	0.0247	0.064	0.062	9900	0	0	0	0	1	-360	360;
	17	113	0.00913	0.0301	0.00768	9900	0	0	0	0	1	-360	360;
	32	113	0.0615	0.203	0.0518	9900	0	0	0	0	1	-360	360;
	32	114	0.0135	0.0612	0.01628	9900	0	0	0	0	1	-360	360;
	27	115	0.0164	0.0741	0.01972	9900	0	0	0	0	1	-360	360;
	114	115	0.0023	0.0104	0.00276	9900	0	0	0	0	1	-360	360;
	68	116	0.00034	0.00405	0.164	9900	0	0	0	0	1	-360	360;
	12	117	0.0329	0.14	0.0358	9900	0	0	0	0	1	-360	360;
	75	118	0.0145	0.0481	0.01198	9900	0	0	0	0	1	-360	360;
	76	118	0.0164	0.0544	0.01356	9900	0	0	0	0	1	-360	360;
];
mpc.gencost = [
	2	0	0	3	0.01	40	0;
	2	0	0	3	0.01	40	0;
	2	0	0	3	0.01	40	0;
	2	0	0	3	0.01	40	0;
	2	0	0	3	0.0222222	20	0;
	2	0	0	3	0.117647	20	0;
	2	0	0	3	0.01	40	0;
	2	0	0	3	0.01	40	0;
	2	0	0	3	0.01	40	0;
	2	0	0	3	0.01	40	0;
	2	0	0	3	0.0454545	20	0;
	2	0	0	3	0.0318471	20	0;
	2	0	0	3	0.01	40	0;
	2	0	0	3	1.42857	20	0;
	2	0	0	3	0.01	40	0;
	2	0	0	3	0.01	40	0;
	2	0	0	3	0.01	40	0;
	2	0	0	3	0.01	40	0;
	2	0	0	3	0.01	40	0;
	2	0	0	3	0.526316	20	0;
	2	0	0	3	0.0490196	20	0;
	2	0	0	3	0.208333	20	0;
	2	0	0	3	0.01	40	0;
	2	0	0	3	0.01	40	0;
	2	0	0	3	0.0645161	20	0;
	2	0	0	3	0.0625	20	0;
	2	0	0	3	0.01	40	0;
	2	0	0	3	0.0255754	20	0;
	2	0	0	3	0.0255102	20	0;
	2	0	0	3	0.0193648	20	0;
	2	0	0	3	0.01	40	0;
	2	0	0	3	0.01	40	0;
	2	0	0	3	0.01	40	0;
	2	0	0	3	0.01	40	0;
	2	0	0	3	0.01	40	0;
	2	0	0	3	0.01	40	0;
	2	0	0	3	0.0209644	20	0;
	2	0	0	3	0.01	40	0;
	2	0	0	3	2.5	20	0;
	2	0	0	3	0.0164745	20	0;
	2	0	0	3	0.01	40	0;
	2	0	0	3	0.01	40	0;
	2	0	0	3	0.01	40	0;
	2	0	0	3	0.01	40	0;
	2	0	0	3	0.0396825	20	0;
	2	0	0	3	0.25	20	0;
	2	0	0	3	0.01	40	0;
	2	0	0	3	0.01	40	0;
	2	0	0	3	0.01	40	0;
	2	0	0	3	0.01	40	0;
	2	0	0	3	0.277778	20	0;
	2	0	0	3	0.01	40	0;
	2	0	0	3	0.01	40	0;
	2	0	0	3	0.01	40	0;
];
